<?xml version="1.0" encoding="UTF-8"?>

<!-- generated on 2024-01-19 19:17:53 by Eclipse SUMO netedit Version 1.19.0
-->

<routes xmlns:xsi="http://www.w3.org/2001/XMLSchema-instance" xsi:noNamespaceSchemaLocation="http://sumo.dlr.de/xsd/routes_file.xsd">
    <!-- Vehicles, persons and containers (sorted by depart) -->
    <flow id="f_0" begin="0.00" from="578571025#2" to="578571025#6" end="30000.00" vehsPerHour="100"/>
    <flow id="f_1" begin="2.00" from="578571036#0" to="691442976#3" end="30000.00" vehsPerHour="100"/>
    <flow id="f_2" begin="3.00" from="624234289#1" to="578571036#4" end="30000.00" vehsPerHour="100"/>
</routes>
