<?xml version="1.0" encoding="UTF-8"?>

<!-- generated on 2024-01-20 04:42:08 by Eclipse SUMO netedit Version 1.19.0
<configuration xmlns:xsi="http://www.w3.org/2001/XMLSchema-instance" xsi:noNamespaceSchemaLocation="http://sumo.dlr.de/xsd/neteditConfiguration.xsd">

    <input>
        <sumocfg-file value="C:\study\ProjectA\verif\sim\try.sumocfg"/>
        <additional-files value=""/>
        <route-files value="C:\study\ProjectA\verif\sim\try.rou.xml"/>
        <sumo-net-file value="C:\study\ProjectA\verif\sim\try.net.xml"/>
    </input>

    <output>
        <output-file value="C:\study\ProjectA\verif\sim\try.net.xml"/>
        <output.street-names value="true"/>
    </output>

    <processing>
        <geometry.min-radius.fix.railways value="false"/>
        <geometry.max-grade.fix value="false"/>
        <offset.disable-normalization value="true"/>
        <lefthand value="0"/>
    </processing>

    <junctions>
        <no-internal-links value="false"/>
        <no-turnarounds value="true"/>
        <junctions.corner-detail value="5"/>
        <junctions.limit-turn-speed value="5.50"/>
        <rectangular-lane-cut value="0"/>
    </junctions>

    <pedestrian>
        <walkingareas value="1"/>
    </pedestrian>

    <netedit>
        <ignore.routeelements value="false"/>
    </netedit>

</configuration>
-->

<net version="1.16" junctionCornerDetail="5" walkingareas="true" limitTurnSpeed="5.50" xmlns:xsi="http://www.w3.org/2001/XMLSchema-instance" xsi:noNamespaceSchemaLocation="http://sumo.dlr.de/xsd/net_file.xsd">

    <location netOffset="-739303.41,-3675915.45" convBoundary="0.00,0.00,486.65,2394.33" origBoundary="35.567473,33.195625,35.572679,33.217171" projParameter="+proj=utm +zone=36 +ellps=WGS84 +datum=WGS84 +units=m +no_defs"/>

    <type id="highway.footway" priority="1" numLanes="1" speed="2.78" allow="pedestrian" oneway="1" width="2.00"/>
    <type id="highway.residential" priority="3" numLanes="1" speed="13.89" disallow="pedestrian tram rail_urban rail rail_electric rail_fast ship" oneway="0" sidewalkWidth="2.00"/>
    <type id="highway.service" priority="1" numLanes="1" speed="5.56" allow="pedestrian delivery bicycle" oneway="0"/>
    <type id="highway.tertiary" priority="10" numLanes="1" speed="13.89" disallow="pedestrian tram rail_urban rail rail_electric rail_fast ship" oneway="0" sidewalkWidth="3.00"/>
    <type id="highway.trunk" priority="13" numLanes="2" speed="13.89" disallow="pedestrian bicycle tram rail_urban rail rail_electric rail_fast ship" oneway="0"/>
    <type id="highway.trunk_link" priority="8" numLanes="1" speed="13.89" disallow="pedestrian bicycle tram rail_urban rail rail_electric rail_fast ship" oneway="0"/>

    <edge id=":11425611904_0" function="internal">
        <lane id=":11425611904_0_0" index="0" allow="pedestrian delivery bicycle" speed="5.56" length="2.58" shape="85.61,1836.25 84.98,1835.82 84.59,1835.46 84.30,1835.02 83.96,1834.34"/>
    </edge>
    <edge id=":11425611904_1" function="internal">
        <lane id=":11425611904_1_0" index="0" allow="pedestrian delivery bicycle" speed="5.56" length="0.86" shape="86.85,1832.97 86.96,1833.19 87.06,1833.34 87.19,1833.46 87.40,1833.61"/>
    </edge>
    <edge id=":11425611904_w0" function="walkingarea">
        <lane id=":11425611904_w0_0" index="0" allow="pedestrian" speed="2.78" length="2.80" width="3.20" shape="84.71,1837.58 88.30,1832.28 82.51,1835.02 83.09,1836.15 83.36,1836.52 83.68,1836.83 84.11,1837.17"/>
    </edge>
    <edge id=":11425611909_0" function="internal">
        <lane id=":11425611909_0_0" index="0" allow="pedestrian delivery bicycle" speed="3.65" length="4.67" shape="63.44,1836.17 62.60,1837.35 61.79,1837.72 61.00,1837.29 60.24,1836.07"/>
    </edge>
    <edge id=":11425611911_0" function="internal">
        <lane id=":11425611911_0_0" index="0" allow="pedestrian delivery bicycle" speed="4.98" length="5.07" shape="54.99,1805.30 54.15,1804.18 53.16,1803.62 52.03,1803.62 50.75,1804.18"/>
    </edge>
    <edge id=":11425611911_1" function="internal">
        <lane id=":11425611911_1_0" index="0" allow="pedestrian delivery bicycle" speed="5.56" length="10.18" shape="54.99,1805.30 53.97,1802.64 53.97,1800.29 54.99,1798.24 57.03,1796.49"/>
    </edge>
    <edge id=":11425611911_2" function="internal">
        <lane id=":11425611911_2_0" index="0" allow="pedestrian delivery bicycle" speed="3.65" length="4.67" shape="54.99,1805.30 55.12,1803.86 55.63,1803.12 56.52,1803.09 57.80,1803.76"/>
    </edge>
    <edge id=":11425611911_3" function="internal">
        <lane id=":11425611911_3_0" index="0" allow="pedestrian delivery bicycle" speed="5.24" length="5.24" shape="58.73,1799.20 57.71,1800.08 57.22,1801.14 57.25,1802.36 57.80,1803.76"/>
    </edge>
    <edge id=":11425611911_4" function="internal">
        <lane id=":11425611911_4_0" index="0" allow="pedestrian delivery bicycle" speed="5.56" length="9.41" shape="58.73,1799.20 50.75,1804.18"/>
    </edge>
    <edge id=":11425611911_5" function="internal">
        <lane id=":11425611911_5_0" index="0" allow="pedestrian delivery bicycle" speed="3.65" length="4.67" shape="58.73,1799.20 57.29,1799.16 56.52,1798.69 56.44,1797.80 57.03,1796.49"/>
    </edge>
    <edge id=":11425611911_6" function="internal">
        <lane id=":11425611911_6_0" index="0" allow="pedestrian delivery bicycle" speed="5.56" length="9.40" shape="49.06,1801.47 57.03,1796.49"/>
    </edge>
    <edge id=":11425611911_7" function="internal">
        <lane id=":11425611911_7_0" index="0" allow="pedestrian delivery bicycle" speed="5.56" length="10.45" shape="49.06,1801.47 51.70,1800.31 54.03,1800.30 56.07,1801.45 57.80,1803.76"/>
    </edge>
    <edge id=":11425611911_8" function="internal">
        <lane id=":11425611911_8_0" index="0" allow="pedestrian delivery bicycle" speed="3.65" length="4.67" shape="49.06,1801.47 50.50,1801.51 51.26,1801.98 51.34,1802.87 50.75,1804.18"/>
    </edge>
    <edge id=":11425611911_w0" function="walkingarea">
        <lane id=":11425611911_w0_0" index="0" allow="pedestrian" speed="2.78" length="6.93" width="3.20" shape="53.59,1806.06 59.20,1802.99 58.85,1801.99 58.85,1801.56 58.97,1801.18 59.21,1800.85 59.58,1800.56 56.18,1795.13 48.21,1800.11 51.60,1805.54 52.38,1805.25 52.73,1805.27 53.05,1805.42 53.33,1805.68"/>
    </edge>
    <edge id=":372830475_0" function="internal">
        <lane id=":372830475_0_0" index="0" disallow="pedestrian tram rail_urban rail rail_electric rail_fast ship" speed="13.89" length="5.06" shape="327.46,1788.72 324.05,1792.46"/>
    </edge>
    <edge id=":372835446_w0" function="walkingarea">
        <lane id=":372835446_w0_0" index="0" allow="pedestrian" speed="2.78" length="5.20" width="2.00" shape="404.21,2185.52 402.21,2185.55 409.41,2185.45 407.41,2185.48"/>
    </edge>
    <edge id=":372836442_0" function="internal">
        <lane id=":372836442_0_0" index="0" disallow="pedestrian tram rail_urban rail rail_electric rail_fast ship" speed="3.65" length="4.67" shape="485.49,1617.80 486.90,1617.48 487.75,1617.74 488.06,1618.58 487.81,1620.00"/>
    </edge>
    <edge id=":5543215808_0" function="internal">
        <lane id=":5543215808_0_0" index="0" disallow="pedestrian bicycle tram rail_urban rail rail_electric rail_fast ship" speed="13.89" length="14.94" shape="313.57,1790.95 317.19,1789.92 320.67,1788.53 323.89,1786.69 326.73,1784.30"/>
    </edge>
    <edge id=":5543215808_1" function="internal">
        <lane id=":5543215808_1_0" index="0" disallow="pedestrian tram rail_urban rail rail_electric rail_fast ship" speed="13.89" length="14.87" shape="315.70,1794.26 326.73,1784.30"/>
    </edge>
    <edge id=":5543215812_0" function="internal">
        <lane id=":5543215812_0_0" index="0" disallow="pedestrian bicycle tram rail_urban rail rail_electric rail_fast ship" speed="13.89" length="5.09" shape="295.90,1829.50 292.91,1833.63"/>
    </edge>
    <edge id=":5543216366_0" function="internal">
        <lane id=":5543216366_0_0" index="0" disallow="pedestrian bicycle tram rail_urban rail rail_electric rail_fast ship" speed="16.67" length="16.74" shape="262.60,1805.07 261.02,1788.41"/>
        <lane id=":5543216366_0_1" index="1" disallow="pedestrian bicycle tram rail_urban rail rail_electric rail_fast ship" speed="16.67" length="16.74" shape="265.79,1804.77 264.21,1788.10"/>
    </edge>
    <edge id=":5543216366_2" function="internal">
        <lane id=":5543216366_2_0" index="0" disallow="pedestrian bicycle tram rail_urban rail rail_electric rail_fast ship" speed="15.28" length="16.69" shape="257.99,1804.64 259.16,1801.23 260.32,1797.80 261.07,1793.73 261.02,1788.41"/>
    </edge>
    <edge id=":5543216395_0" function="internal">
        <lane id=":5543216395_0_0" index="0" disallow="pedestrian bicycle tram rail_urban rail rail_electric rail_fast ship" speed="16.67" length="5.01" shape="262.28,1616.59 262.71,1621.58"/>
        <lane id=":5543216395_0_1" index="1" disallow="pedestrian bicycle tram rail_urban rail rail_electric rail_fast ship" speed="16.67" length="5.01" shape="259.09,1616.87 259.53,1621.86"/>
    </edge>
    <edge id=":5543216398_0" function="internal">
        <lane id=":5543216398_0_0" index="0" disallow="pedestrian bicycle tram rail_urban rail rail_electric rail_fast ship" speed="13.89" length="9.66" shape="236.92,1647.49 234.30,1646.29 232.47,1645.35 230.59,1644.85 227.82,1644.95"/>
    </edge>
    <edge id=":5543216398_1" function="internal">
        <lane id=":5543216398_1_0" index="0" disallow="pedestrian tram rail_urban rail rail_electric rail_fast ship" speed="13.89" length="9.64" shape="237.37,1643.67 227.82,1644.95"/>
    </edge>
    <edge id=":5543216401_0" function="internal">
        <lane id=":5543216401_0_0" index="0" disallow="pedestrian bicycle tram rail_urban rail rail_electric rail_fast ship" speed="16.67" length="15.36" shape="248.25,1626.42 246.93,1611.11"/>
        <lane id=":5543216401_0_1" index="1" disallow="pedestrian bicycle tram rail_urban rail rail_electric rail_fast ship" speed="16.67" length="15.36" shape="251.44,1626.15 250.12,1610.84"/>
    </edge>
    <edge id=":5543216401_2" function="internal">
        <lane id=":5543216401_2_0" index="0" disallow="pedestrian bicycle tram rail_urban rail rail_electric rail_fast ship" speed="15.28" length="15.29" shape="243.12,1625.64 244.70,1622.51 246.06,1619.48 246.91,1615.90 246.93,1611.11"/>
    </edge>
    <edge id=":5543216405_0" function="internal">
        <lane id=":5543216405_0_0" index="0" disallow="pedestrian bicycle tram rail_urban rail rail_electric rail_fast ship" speed="13.42" length="7.16" shape="227.96,1637.44 229.99,1637.01 231.29,1636.38 232.47,1635.44 234.15,1634.13"/>
    </edge>
    <edge id=":5543216405_1" function="internal">
        <lane id=":5543216405_1_0" index="0" disallow="pedestrian tram rail_urban rail rail_electric rail_fast ship" speed="13.89" length="9.82" shape="227.96,1637.44 237.71,1636.24"/>
    </edge>
    <edge id=":5543216418_0" function="internal">
        <lane id=":5543216418_0_0" index="0" disallow="pedestrian bicycle tram rail_urban rail rail_electric rail_fast ship" speed="13.89" length="16.16" shape="314.58,1803.09 312.13,1806.15 309.78,1809.57 307.52,1813.06 305.37,1816.35"/>
    </edge>
    <edge id=":5543216418_1" function="internal">
        <lane id=":5543216418_1_0" index="0" disallow="pedestrian tram rail_urban rail rail_electric rail_fast ship" speed="13.89" length="16.18" shape="314.58,1803.09 311.86,1805.93 308.83,1808.77 305.68,1811.49 302.61,1813.95"/>
    </edge>
    <edge id=":5543216774_0" function="internal">
        <lane id=":5543216774_0_0" index="0" disallow="pedestrian bicycle tram rail_urban rail rail_electric rail_fast ship" speed="13.69" length="16.31" shape="251.88,1668.65 251.21,1663.51 249.97,1659.66 248.15,1656.65 245.73,1654.04"/>
    </edge>
    <edge id=":5543216774_1" function="internal">
        <lane id=":5543216774_1_0" index="0" disallow="pedestrian bicycle tram rail_urban rail rail_electric rail_fast ship" speed="16.67" length="16.23" shape="251.88,1668.65 250.50,1652.51"/>
        <lane id=":5543216774_1_1" index="1" disallow="pedestrian bicycle tram rail_urban rail rail_electric rail_fast ship" speed="16.67" length="16.23" shape="255.07,1668.44 253.69,1652.23"/>
    </edge>
    <edge id=":5543216783_0" function="internal">
        <lane id=":5543216783_0_0" index="0" disallow="pedestrian tram rail_urban rail rail_electric rail_fast ship" speed="13.89" length="0.31" shape="343.07,1772.06 342.86,1772.29"/>
    </edge>
    <edge id=":5543216783_1" function="internal">
        <lane id=":5543216783_1_0" index="0" disallow="pedestrian tram rail_urban rail rail_electric rail_fast ship" speed="13.89" length="0.26" shape="340.52,1770.10 340.70,1769.91"/>
    </edge>
    <edge id=":5543216860_0" function="internal">
        <lane id=":5543216860_0_0" index="0" disallow="pedestrian bicycle tram rail_urban rail rail_electric rail_fast ship" speed="13.96" length="14.84" shape="265.80,1855.81 264.94,1851.30 263.43,1848.12 261.39,1845.61 258.92,1843.15"/>
    </edge>
    <edge id=":5543216860_1" function="internal">
        <lane id=":5543216860_1_0" index="0" disallow="pedestrian bicycle tram rail_urban rail rail_electric rail_fast ship" speed="16.67" length="14.85" shape="265.80,1855.81 264.40,1841.03"/>
        <lane id=":5543216860_1_1" index="1" disallow="pedestrian bicycle tram rail_urban rail rail_electric rail_fast ship" speed="16.67" length="14.85" shape="268.99,1855.51 267.59,1840.73"/>
        <lane id=":5543216860_1_2" index="2" disallow="pedestrian bicycle tram rail_urban rail rail_electric rail_fast ship" speed="16.67" length="14.85" shape="272.17,1855.21 270.77,1840.42"/>
    </edge>
    <edge id=":5543216875_0" function="internal">
        <lane id=":5543216875_0_0" index="0" disallow="pedestrian bicycle tram rail_urban rail rail_electric rail_fast ship" speed="15.28" length="17.70" shape="286.19,1845.89 284.87,1849.34 283.65,1852.99 282.90,1857.38 282.98,1863.08"/>
    </edge>
    <edge id=":5543216875_1" function="internal">
        <lane id=":5543216875_1_0" index="0" disallow="pedestrian bicycle tram rail_urban rail rail_electric rail_fast ship" speed="16.67" length="17.65" shape="281.31,1845.50 282.98,1863.08"/>
        <lane id=":5543216875_1_1" index="1" disallow="pedestrian bicycle tram rail_urban rail rail_electric rail_fast ship" speed="16.67" length="17.65" shape="278.13,1845.80 279.79,1863.38"/>
    </edge>
    <edge id=":5543216889_0" function="internal">
        <lane id=":5543216889_0_0" index="0" disallow="pedestrian bicycle tram rail_urban rail rail_electric rail_fast ship" speed="14.97" length="15.03" shape="273.85,1766.60 274.73,1771.19 276.24,1774.44 278.25,1777.03 280.62,1779.60"/>
    </edge>
    <edge id=":5543216889_1" function="internal">
        <lane id=":5543216889_1_0" index="0" disallow="pedestrian bicycle tram rail_urban rail rail_electric rail_fast ship" speed="16.67" length="14.99" shape="273.85,1766.60 275.26,1781.52"/>
        <lane id=":5543216889_1_1" index="1" disallow="pedestrian bicycle tram rail_urban rail rail_electric rail_fast ship" speed="16.67" length="14.99" shape="270.66,1766.90 272.07,1781.82"/>
    </edge>
    <edge id=":5556727793_0" function="internal">
        <lane id=":5556727793_0_0" index="0" disallow="pedestrian bicycle tram rail_urban rail rail_electric rail_fast ship" speed="6.85" length="9.24" shape="277.18,1729.04 274.76,1729.69 273.05,1730.95 272.04,1732.82 271.73,1735.28"/>
    </edge>
    <edge id=":5556727793_1" function="internal">
        <lane id=":5556727793_1_0" index="0" disallow="pedestrian tram rail_urban rail rail_electric rail_fast ship" speed="3.65" length="4.67" shape="277.18,1729.04 275.89,1728.40 275.39,1727.65 275.69,1726.81 276.78,1725.86"/>
    </edge>
    <edge id=":5556727793_2" function="internal">
        <lane id=":5556727793_2_0" index="0" disallow="pedestrian bicycle tram rail_urban rail rail_electric rail_fast ship" speed="6.40" length="9.04" shape="270.71,1720.91 271.25,1723.35 272.44,1724.98 274.28,1725.82 276.78,1725.86"/>
    </edge>
    <edge id=":5556727793_3" function="internal">
        <lane id=":5556727793_3_0" index="0" disallow="pedestrian bicycle tram rail_urban rail rail_electric rail_fast ship" speed="16.67" length="14.41" shape="270.71,1720.91 271.73,1735.28"/>
        <lane id=":5556727793_3_1" index="1" disallow="pedestrian bicycle tram rail_urban rail rail_electric rail_fast ship" speed="16.67" length="14.41" shape="267.52,1721.16 268.53,1735.53"/>
    </edge>
    <edge id=":5560381593_0" function="internal">
        <lane id=":5560381593_0_0" index="0" allow="pedestrian delivery bicycle" speed="3.65" length="4.67" shape="145.66,1717.47 144.91,1718.70 144.12,1719.13 143.31,1718.76 142.46,1717.59"/>
    </edge>
    <edge id=":5560381598_0" function="internal">
        <lane id=":5560381598_0_0" index="0" allow="pedestrian delivery bicycle" speed="3.65" length="4.67" shape="194.95,1724.10 195.67,1722.85 196.44,1722.39 197.27,1722.74 198.15,1723.88"/>
    </edge>
    <edge id=":5560381620_0" function="internal">
        <lane id=":5560381620_0_0" index="0" allow="pedestrian delivery bicycle" speed="4.94" length="5.12" shape="85.13,1786.52 84.32,1785.35 83.35,1784.76 82.21,1784.75 80.91,1785.33"/>
    </edge>
    <edge id=":5560381620_1" function="internal">
        <lane id=":5560381620_1_0" index="0" allow="pedestrian delivery bicycle" speed="5.56" length="9.59" shape="85.13,1786.52 83.86,1783.97 82.94,1782.25 81.93,1780.59 80.40,1778.19"/>
    </edge>
    <edge id=":5560381620_2" function="internal">
        <lane id=":5560381620_2_0" index="0" allow="pedestrian delivery bicycle" speed="5.56" length="10.40" shape="85.13,1786.52 84.19,1783.78 84.26,1781.36 85.33,1779.27 87.42,1777.49"/>
    </edge>
    <edge id=":5560381620_3" function="internal">
        <lane id=":5560381620_3_0" index="0" allow="pedestrian delivery bicycle" speed="3.65" length="4.67" shape="85.13,1786.52 85.31,1785.08 85.85,1784.37 86.74,1784.37 88.00,1785.08"/>
    </edge>
    <edge id=":5560381620_4" function="internal">
        <lane id=":5560381620_4_0" index="0" allow="pedestrian delivery bicycle" speed="5.45" length="5.59" shape="89.11,1780.21 88.03,1781.15 87.48,1782.27 87.47,1783.58 88.00,1785.08"/>
    </edge>
    <edge id=":5560381620_5" function="internal">
        <lane id=":5560381620_5_0" index="0" allow="pedestrian delivery bicycle" speed="5.56" length="9.67" shape="89.11,1780.21 80.91,1785.33"/>
    </edge>
    <edge id=":5560381620_6" function="internal">
        <lane id=":5560381620_6_0" index="0" allow="pedestrian delivery bicycle" speed="5.56" length="10.16" shape="89.11,1780.21 86.59,1781.32 84.29,1781.35 82.23,1780.31 80.40,1778.19"/>
    </edge>
    <edge id=":5560381620_7" function="internal">
        <lane id=":5560381620_7_0" index="0" allow="pedestrian delivery bicycle" speed="3.65" length="4.67" shape="89.11,1780.21 87.67,1780.16 86.91,1779.70 86.82,1778.81 87.42,1777.49"/>
    </edge>
    <edge id=":5560381620_8" function="internal">
        <lane id=":5560381620_8_0" index="0" allow="pedestrian delivery bicycle" speed="5.09" length="5.06" shape="83.08,1776.45 84.00,1777.52 85.03,1778.05 86.17,1778.04 87.42,1777.49"/>
    </edge>
    <edge id=":5560381620_9" function="internal">
        <lane id=":5560381620_9_0" index="0" allow="pedestrian delivery bicycle" speed="5.56" length="9.94" shape="83.08,1776.45 84.68,1778.94 85.72,1780.67 86.67,1782.45 88.00,1785.08"/>
    </edge>
    <edge id=":5560381620_10" function="internal">
        <lane id=":5560381620_10_0" index="0" allow="pedestrian delivery bicycle" speed="5.56" length="10.45" shape="83.08,1776.45 84.25,1779.01 84.27,1781.35 83.16,1783.45 80.91,1785.33"/>
    </edge>
    <edge id=":5560381620_11" function="internal">
        <lane id=":5560381620_11_0" index="0" allow="pedestrian delivery bicycle" speed="3.65" length="4.67" shape="83.08,1776.45 83.06,1777.90 82.61,1778.67 81.72,1778.76 80.40,1778.19"/>
    </edge>
    <edge id=":5560381620_12" function="internal">
        <lane id=":5560381620_12_0" index="0" allow="pedestrian delivery bicycle" speed="5.11" length="5.24" shape="79.22,1782.61 80.37,1781.66 80.95,1780.61 80.96,1779.45 80.40,1778.19"/>
    </edge>
    <edge id=":5560381620_13" function="internal">
        <lane id=":5560381620_13_0" index="0" allow="pedestrian delivery bicycle" speed="5.56" length="9.67" shape="79.22,1782.61 87.42,1777.49"/>
    </edge>
    <edge id=":5560381620_14" function="internal">
        <lane id=":5560381620_14_0" index="0" allow="pedestrian delivery bicycle" speed="5.56" length="10.64" shape="79.22,1782.61 81.92,1781.42 84.28,1781.43 86.31,1782.66 88.00,1785.08"/>
    </edge>
    <edge id=":5560381620_15" function="internal">
        <lane id=":5560381620_15_0" index="0" allow="pedestrian delivery bicycle" speed="3.65" length="4.67" shape="79.22,1782.61 80.66,1782.66 81.42,1783.12 81.51,1784.01 80.91,1785.33"/>
    </edge>
    <edge id=":5560381620_w0" function="walkingarea">
        <lane id=":5560381620_w0_0" index="0" allow="pedestrian" speed="2.78" length="7.33" width="3.20" shape="83.70,1787.23 89.43,1784.37 89.07,1783.22 89.09,1782.73 89.24,1782.28 89.53,1781.90 89.96,1781.56 86.57,1776.13 85.77,1776.43 85.40,1776.39 85.05,1776.24 84.73,1775.97 84.43,1775.58 79.05,1779.06 79.34,1779.86 79.29,1780.24 79.11,1780.60 78.80,1780.94 78.37,1781.26 81.76,1786.68 82.54,1786.39 82.88,1786.42 83.19,1786.57 83.46,1786.84"/>
    </edge>
    <edge id=":5560387271_0" function="internal">
        <lane id=":5560387271_0_0" index="0" allow="pedestrian delivery bicycle" speed="3.65" length="4.67" shape="138.38,1672.78 137.18,1671.98 136.78,1671.18 137.18,1670.38 138.38,1669.58"/>
    </edge>
    <edge id=":5560387307_0" function="internal">
        <lane id=":5560387307_0_0" index="0" allow="delivery bicycle" speed="13.89" length="12.26" shape="235.85,1836.79 232.77,1837.89 230.39,1839.35 228.15,1841.11 225.47,1843.12"/>
    </edge>
    <edge id=":5560387307_1" function="internal">
        <lane id=":5560387307_1_0" index="0" disallow="pedestrian tram rail_urban rail rail_electric rail_fast ship" speed="13.89" length="12.26" shape="235.85,1836.79 223.97,1839.77"/>
    </edge>
    <edge id=":5560387468_0" function="internal">
        <lane id=":5560387468_0_0" index="0" disallow="pedestrian tram rail_urban rail rail_electric rail_fast ship" speed="13.89" length="6.70" shape="123.90,1832.35 124.06,1834.30 123.81,1835.67 123.56,1837.04 123.74,1838.98"/>
    </edge>
    <edge id=":5560387468_1" function="internal">
        <lane id=":5560387468_1_0" index="0" disallow="pedestrian tram rail_urban rail rail_electric rail_fast ship" speed="3.65" length="1.44" shape="123.90,1832.35 123.36,1833.69"/>
    </edge>
    <edge id=":5560387468_4" function="internal">
        <lane id=":5560387468_4_0" index="0" disallow="pedestrian tram rail_urban rail rail_electric rail_fast ship" speed="3.65" length="3.23" shape="123.36,1833.69 122.66,1834.24 121.80,1834.01 120.77,1833.00"/>
    </edge>
    <edge id=":5560387468_2" function="internal">
        <lane id=":5560387468_2_0" index="0" disallow="pedestrian tram rail_urban rail rail_electric rail_fast ship" speed="9.69" length="6.25" shape="119.58,1838.94 120.40,1837.28 120.89,1836.06 121.03,1834.80 120.77,1833.00"/>
    </edge>
    <edge id=":5560387468_3" function="internal">
        <lane id=":5560387468_3_0" index="0" disallow="pedestrian tram rail_urban rail rail_electric rail_fast ship" speed="4.81" length="2.87" shape="119.58,1838.94 120.90,1836.69 121.11,1836.55"/>
    </edge>
    <edge id=":5560387468_5" function="internal">
        <lane id=":5560387468_5_0" index="0" disallow="pedestrian tram rail_urban rail rail_electric rail_fast ship" speed="4.81" length="4.72" shape="121.11,1836.55 122.04,1835.95 122.98,1836.71 123.74,1838.98"/>
    </edge>
    <edge id=":5560387485_0" function="internal">
        <lane id=":5560387485_0_0" index="0" allow="pedestrian delivery bicycle" speed="3.65" length="4.67" shape="32.70,1790.49 32.62,1789.05 33.02,1788.25 33.90,1788.09 35.26,1788.57"/>
    </edge>
    <edge id=":5560387486_0" function="internal">
        <lane id=":5560387486_0_0" index="0" allow="delivery bicycle" speed="4.75" length="5.49" shape="108.08,1772.56 107.53,1771.06 106.69,1770.28 105.54,1770.21 104.08,1770.86"/>
    </edge>
    <edge id=":5560387486_1" function="internal">
        <lane id=":5560387486_1_0" index="0" disallow="pedestrian tram rail_urban rail rail_electric rail_fast ship" speed="13.89" length="9.82" shape="108.08,1772.56 106.06,1762.95"/>
    </edge>
    <edge id=":5560387486_2" function="internal">
        <lane id=":5560387486_2_0" index="0" disallow="pedestrian tram rail_urban rail rail_electric rail_fast ship" speed="13.89" length="9.82" shape="109.19,1762.30 111.21,1771.90"/>
    </edge>
    <edge id=":5560387486_3" function="internal">
        <lane id=":5560387486_3_0" index="0" allow="delivery bicycle" speed="8.09" length="2.74" shape="109.19,1762.30 109.24,1764.61 109.09,1765.01"/>
    </edge>
    <edge id=":5560387486_7" function="internal">
        <lane id=":5560387486_7_0" index="0" allow="delivery bicycle" speed="8.09" length="7.89" shape="109.09,1765.01 108.41,1766.81 106.69,1768.89 104.08,1770.86"/>
    </edge>
    <edge id=":5560387486_4" function="internal">
        <lane id=":5560387486_4_0" index="0" allow="delivery bicycle" speed="6.56" length="6.73" shape="102.39,1768.15 104.19,1766.84 105.41,1765.53 106.03,1764.24 106.06,1762.95"/>
    </edge>
    <edge id=":5560387486_5" function="internal">
        <lane id=":5560387486_5_0" index="0" allow="delivery bicycle" speed="6.68" length="12.13" shape="102.39,1768.15 105.60,1766.72 108.14,1766.87 110.01,1768.59 111.21,1771.90"/>
    </edge>
    <edge id=":5560387486_6" function="internal">
        <lane id=":5560387486_6_0" index="0" allow="pedestrian delivery bicycle" speed="3.65" length="4.67" shape="102.39,1768.15 103.83,1768.19 104.59,1768.66 104.68,1769.55 104.08,1770.86"/>
    </edge>
    <edge id=":5560387486_w0" function="walkingarea">
        <lane id=":5560387486_w0_0" index="0" allow="pedestrian" speed="2.78" length="3.20" width="3.20" shape="101.54,1766.79 103.23,1769.50 104.93,1772.22"/>
    </edge>
    <edge id=":5560387488_0" function="internal">
        <lane id=":5560387488_0_0" index="0" allow="delivery bicycle" speed="4.84" length="5.29" shape="205.79,1834.51 206.10,1835.98 206.81,1836.88 207.90,1837.22 209.38,1837.00"/>
    </edge>
    <edge id=":5560387488_1" function="internal">
        <lane id=":5560387488_1_0" index="0" allow="pedestrian delivery bicycle" speed="3.65" length="4.67" shape="205.79,1834.51 205.07,1835.76 204.30,1836.22 203.48,1835.88 202.60,1834.73"/>
    </edge>
    <edge id=":5560387488_2" function="internal">
        <lane id=":5560387488_2_0" index="0" allow="delivery bicycle" speed="5.89" length="6.00" shape="200.22,1839.73 201.37,1839.12 202.15,1838.08 202.56,1836.62 202.60,1834.73"/>
    </edge>
    <edge id=":5560387488_3" function="internal">
        <lane id=":5560387488_3_0" index="0" disallow="pedestrian tram rail_urban rail rail_electric rail_fast ship" speed="13.89" length="9.56" shape="200.22,1839.73 209.38,1837.00"/>
    </edge>
    <edge id=":5560387488_w0" function="walkingarea">
        <lane id=":5560387488_w0_0" index="0" allow="pedestrian" speed="2.78" length="3.20" width="3.20" shape="207.39,1834.40 204.19,1834.62 201.00,1834.84"/>
    </edge>
    <edge id=":5560387498_0" function="internal">
        <lane id=":5560387498_0_0" index="0" allow="pedestrian delivery bicycle" speed="5.56" length="9.40" shape="103.73,1771.08 95.75,1776.07"/>
    </edge>
    <edge id=":5560387498_1" function="internal">
        <lane id=":5560387498_1_0" index="0" allow="pedestrian delivery bicycle" speed="5.56" length="10.17" shape="103.73,1771.08 101.18,1772.21 98.88,1772.25 96.84,1771.21 95.04,1769.08"/>
    </edge>
    <edge id=":5560387498_2" function="internal">
        <lane id=":5560387498_2_0" index="0" allow="pedestrian delivery bicycle" speed="3.65" length="4.67" shape="103.73,1771.08 102.28,1771.04 101.52,1770.57 101.44,1769.68 102.03,1768.37"/>
    </edge>
    <edge id=":5560387498_3" function="internal">
        <lane id=":5560387498_3_0" index="0" allow="pedestrian delivery bicycle" speed="5.04" length="5.00" shape="97.76,1767.38 98.64,1768.43 99.65,1768.95 100.78,1768.92 102.03,1768.37"/>
    </edge>
    <edge id=":5560387498_4" function="internal">
        <lane id=":5560387498_4_0" index="0" allow="pedestrian delivery bicycle" speed="5.56" length="10.16" shape="97.76,1767.38 98.88,1769.93 98.92,1772.23 97.88,1774.27 95.75,1776.07"/>
    </edge>
    <edge id=":5560387498_5" function="internal">
        <lane id=":5560387498_5_0" index="0" allow="pedestrian delivery bicycle" speed="3.65" length="4.67" shape="97.76,1767.38 97.71,1768.82 97.25,1769.59 96.36,1769.67 95.04,1769.08"/>
    </edge>
    <edge id=":5560387498_6" function="internal">
        <lane id=":5560387498_6_0" index="0" allow="pedestrian delivery bicycle" speed="5.04" length="5.00" shape="94.06,1773.35 95.10,1772.47 95.62,1771.46 95.60,1770.33 95.04,1769.08"/>
    </edge>
    <edge id=":5560387498_7" function="internal">
        <lane id=":5560387498_7_0" index="0" allow="pedestrian delivery bicycle" speed="5.56" length="9.40" shape="94.06,1773.35 102.03,1768.37"/>
    </edge>
    <edge id=":5560387498_8" function="internal">