<?xml version="1.0" encoding="UTF-8"?>

<!-- generated on 2024-09-23 12:35:18 by Eclipse SUMO netedit Version 1.19.0
-->

<routes xmlns:xsi="http://www.w3.org/2001/XMLSchema-instance" xsi:noNamespaceSchemaLocation="http://sumo.dlr.de/xsd/routes_file.xsd">
    <!-- VTypes -->
    <vType id="BUS_TYPE" vClass="passenger"/>
    <vType id="CAR_TYPE" vClass="passenger"/>
    <!-- Vehicles, persons and containers (sorted by depart) -->
    <flow id="f_0" type="CAR_TYPE" begin="0.00" color="yellow" fromJunction="J17" toJunction="J20" end="3600.00" period="exp(0.07)"/>
    <flow id="f_1" type="CAR_TYPE" begin="0.00" color="yellow" fromJunction="J20" toJunction="J17" end="3600.00" period="exp(0.07)"/>
    <flow id="f_2" type="CAR_TYPE" begin="0.00" color="yellow" fromJunction="J17" toJunction="J21" end="3600.00" period="exp(0.07)"/>
    <flow id="f_3" type="CAR_TYPE" begin="0.00" color="yellow" fromJunction="J20" toJunction="J22" end="3600.00" period="exp(0.07)"/>
    <flow id="f_4" type="CAR_TYPE" begin="0.00" color="yellow" fromJunction="J21" toJunction="J22" end="3600.00" period="exp(0.07)"/>
    <flow id="f_5" type="CAR_TYPE" begin="0.00" color="yellow" fromJunction="J22" toJunction="J21" end="3600.00" period="exp(0.07)"/>
    <flow id="f_6" type="CAR_TYPE" begin="0.00" color="yellow" fromJunction="J22" toJunction="J17" end="3600.00" period="exp(0.07)"/>
    <flow id="f_7" type="CAR_TYPE" begin="0.00" color="yellow" fromJunction="J21" toJunction="J20" end="3600.00" period="exp(0.07)"/>
</routes>
