<?xml version="1.0" encoding="UTF-8"?>

<!-- generated on 2024-05-24 14:49:00 by Eclipse SUMO netedit Version 1.19.0
-->

<routes xmlns:xsi="http://www.w3.org/2001/XMLSchema-instance" xsi:noNamespaceSchemaLocation="http://sumo.dlr.de/xsd/routes_file.xsd">
    <!-- VTypes -->
    <vType id="DEFAULT_CONTAINERTYPE" vClass="bus" latAlignment="nice"/>
    <vType id="DEFAULT_VEHTYPE"/>
    <!-- Vehicles, persons and containers (sorted by depart) -->
    <flow id="f_0" begin="0.00" fromJunction="J17" toJunction="J20" end="3600.00" vehsPerHour="200"/>
    <flow id="f_1" begin="0.00" fromJunction="J17" toJunction="J21" end="3600.00" vehsPerHour="120"/>
    <flow id="f_2" begin="0.00" fromJunction="J22" toJunction="J21" end="3600.00" vehsPerHour="100"/>
    <flow id="f_3" begin="0.00" fromJunction="J22" toJunction="J17" end="3600.00" vehsPerHour="80"/>
    <flow id="f_4" begin="0.00" fromJunction="J20" toJunction="J17" end="3600.00" vehsPerHour="120"/>
    <flow id="f_5" begin="0.00" fromJunction="J20" toJunction="J22" end="3600.00" vehsPerHour="80"/>
    <flow id="f_6" begin="0.00" fromJunction="J21" toJunction="J22" end="3600.00" vehsPerHour="69.99941667152774016358"/>
    <flow id="f_7" begin="0.00" fromJunction="J21" toJunction="J20" end="3600.00" vehsPerHour="100"/>
    <flow id="f_8" type="DEFAULT_CONTAINERTYPE" begin="0.00" color="green" fromJunction="J20" toJunction="J22" end="3600.00" vehsPerHour="40"/>
</routes>
