<?xml version="1.0" encoding="UTF-8"?>

<!-- generated on 2024-09-17 20:53:07 by Eclipse SUMO sumo Version 1.19.0
-->

<configuration xmlns:xsi="http://www.w3.org/2001/XMLSchema-instance" xsi:noNamespaceSchemaLocation="http://sumo.dlr.de/xsd/sumoConfiguration.xsd">

    <input>
        <net-file value="single_tls_4_way.net.xml"/>
        <route-files value="single_tls_4_way.rou.xml"/>
        <junction-taz value="true"/>
    </input>

</configuration>
