<?xml version="1.0" encoding="UTF-8"?>

<!-- generated on 2024-05-24 14:49:00 by Eclipse SUMO netedit Version 1.19.0
<configuration xmlns:xsi="http://www.w3.org/2001/XMLSchema-instance" xsi:noNamespaceSchemaLocation="http://sumo.dlr.de/xsd/neteditConfiguration.xsd">

    <input>
        <sumocfg-file value="C:\study\ProjectA\verif\sim\single_tls_4_way\single_tls_4_way.sumocfg"/>
        <additional-files value=""/>
        <route-files value="C:\study\ProjectA\verif\sim\single_tls_4_way\single_tls_4_way.rou.xml"/>
        <sumo-net-file value="C:\study\ProjectA\verif\sim\single_tls_4_way\single_tls_4_way.net.xml"/>
    </input>

    <output>
        <output-file value="C:\study\ProjectA\verif\sim\single_tls_4_way\single_tls_4_way.net.xml"/>
    </output>

    <processing>
        <geometry.min-radius.fix.railways value="false"/>
        <geometry.max-grade.fix value="false"/>
        <offset.disable-normalization value="true"/>
        <lefthand value="0"/>
    </processing>

    <junctions>
        <no-turnarounds value="true"/>
        <junctions.corner-detail value="5"/>
        <junctions.limit-turn-speed value="5.50"/>
        <rectangular-lane-cut value="0"/>
    </junctions>

    <pedestrian>
        <walkingareas value="0"/>
    </pedestrian>

    <netedit>
        <ignore.routeelements value="false"/>
    </netedit>

</configuration>
-->

<net version="1.16" junctionCornerDetail="5" limitTurnSpeed="5.50" xmlns:xsi="http://www.w3.org/2001/XMLSchema-instance" xsi:noNamespaceSchemaLocation="http://sumo.dlr.de/xsd/net_file.xsd">

    <location netOffset="0.00,0.00" convBoundary="-832.74,66.87,200.00,469.54" origBoundary="0.00,0.00,400.00,400.00" projParameter="!"/>

    <edge id=":my_traffic_light_0" function="internal">
        <lane id=":my_traffic_light_0_0" index="0" disallow="pedestrian" speed="13.89" length="20.84" shape="-595.62,285.67 -595.62,264.83"/>
    </edge>
    <edge id=":my_traffic_light_1" function="internal">
        <lane id=":my_traffic_light_1_0" index="0" disallow="pedestrian" speed="9.27" length="19.39" shape="-592.42,285.67 -591.67,280.41 -589.42,276.64 -585.67,274.38 -580.41,273.62"/>
    </edge>
    <edge id=":my_traffic_light_2" function="internal">
        <lane id=":my_traffic_light_2_0" index="0" disallow="pedestrian" speed="13.89" length="20.82" shape="-580.40,280.02 -601.23,280.09"/>
    </edge>
    <edge id=":my_traffic_light_3" function="internal">
        <lane id=":my_traffic_light_3_0" index="0" disallow="pedestrian" speed="9.26" length="19.37" shape="-580.41,276.82 -585.66,276.08 -589.42,273.83 -591.67,270.08 -592.42,264.83"/>
    </edge>
    <edge id=":my_traffic_light_4" function="internal">
        <lane id=":my_traffic_light_4_0" index="0" disallow="pedestrian" speed="13.89" length="20.84" shape="-586.02,264.83 -586.02,285.67"/>
    </edge>
    <edge id=":my_traffic_light_5" function="internal">
        <lane id=":my_traffic_light_5_0" index="0" disallow="pedestrian" speed="9.28" length="19.40" shape="-589.22,264.83 -589.97,270.08 -592.23,273.85 -595.98,276.11 -601.24,276.89"/>
    </edge>
    <edge id=":my_traffic_light_6" function="internal">
        <lane id=":my_traffic_light_6_0" index="0" disallow="pedestrian" speed="13.89" length="20.85" shape="-601.27,270.49 -580.42,270.42"/>
    </edge>
    <edge id=":my_traffic_light_7" function="internal">
        <lane id=":my_traffic_light_7_0" index="0" disallow="pedestrian" speed="9.25" length="19.39" shape="-601.26,273.69 -595.99,274.42 -592.23,276.66 -589.97,280.41 -589.22,285.67"/>
    </edge>

    <edge id="-E11" from="my_traffic_light" to="J17" priority="-1">
        <lane id="-E11_0" index="0" disallow="pedestrian" speed="13.89" length="183.85" shape="-586.02,285.67 -585.98,469.52"/>
        <lane id="-E11_1" index="1" disallow="pedestrian" speed="13.89" length="183.85" shape="-589.22,285.67 -589.18,469.52"/>
    </edge>
    <edge id="-E12" from="J20" to="my_traffic_light" priority="-1">
        <lane id="-E12_0" index="0" disallow="pedestrian" speed="13.89" length="197.96" shape="-586.02,66.87 -586.02,264.83"/>
        <lane id="-E12_1" index="1" disallow="pedestrian" speed="13.89" length="197.96" shape="-589.22,66.87 -589.22,264.83"/>
    </edge>
    <edge id="-E13" from="J21" to="my_traffic_light" priority="-1">
        <lane id="-E13_0" index="0" disallow="pedestrian" speed="13.89" length="245.05" shape="-335.35,279.62 -580.40,280.02"/>
        <lane id="-E13_1" index="1" disallow="pedestrian" speed="13.89" length="245.05" shape="-335.36,276.42 -580.41,276.82"/>
    </edge>
    <edge id="-E14" from="my_traffic_light" to="J22" priority="-1">
        <lane id="-E14_0" index="0" disallow="pedestrian" speed="13.89" length="231.49" shape="-601.23,280.09 -832.72,281.16"/>
        <lane id="-E14_1" index="1" disallow="pedestrian" speed="13.89" length="231.49" shape="-601.24,276.89 -832.73,277.96"/>
    </edge>
    <edge id="E11" from="J17" to="my_traffic_light" priority="-1" spreadType="center" shape="-593.98,469.54 -594.02,275.20">
        <lane id="E11_0" index="0" disallow="pedestrian" speed="13.89" length="183.87" shape="-595.58,469.54 -595.62,285.67"/>
        <lane id="E11_1" index="1" disallow="pedestrian" speed="13.89" length="183.87" shape="-592.38,469.54 -592.42,285.67"/>
    </edge>
    <edge id="E12" from="my_traffic_light" to="J20" priority="-1">
        <lane id="E12_0" index="0" disallow="pedestrian" speed="13.89" length="197.96" shape="-595.62,264.83 -595.62,66.87"/>
        <lane id="E12_1" index="1" disallow="pedestrian" speed="13.89" length="197.96" shape="-592.42,264.83 -592.42,66.87"/>
    </edge>
    <edge id="E13" from="my_traffic_light" to="J21" priority="-1">
        <lane id="E13_0" index="0" disallow="pedestrian" speed="13.89" length="245.05" shape="-580.42,270.42 -335.37,270.02"/>
        <lane id="E13_1" index="1" disallow="pedestrian" speed="13.89" length="245.05" shape="-580.41,273.62 -335.36,273.22"/>
    </edge>
    <edge id="E14" from="J22" to="my_traffic_light" priority="-1">
        <lane id="E14_0" index="0" disallow="pedestrian" speed="13.89" length="231.49" shape="-832.76,271.56 -601.27,270.49"/>
        <lane id="E14_1" index="1" disallow="pedestrian" speed="13.89" length="231.49" shape="-832.75,274.76 -601.26,273.69"/>
    </edge>

    <tlLogic id="my_traffic_light" type="static" programID="0" offset="0">
        <phase duration="15" state="GrrrGrrr" next="1"/>
        <phase duration="2"  state="Grrryrrr" next="2"/>
        <phase duration="1"  state="Grrrrrrr" next="3"/>
        <phase duration="15" state="GGrrrrrr" next="4"/>
        <phase duration="2"  state="yyrrrrrr" next="5"/>
        <phase duration="1"  state="rrrrrrrr" next="6"/>
        <phase duration="15" state="rrGrrrGr" next="7"/>
        <phase duration="2"  state="rryrrrGr" next="8"/>
        <phase duration="1"  state="rrrrrrGr" next="9"/>
        <phase duration="15" state="rrrrrrGG" next="10"/>
        <phase duration="2"  state="rrrrrryy" next="11"/>
        <phase duration="1"  state="rrrrrrrr" next="12"/>
        <phase duration="15" state="GrrrGrrr" next="13"/>
        <phase duration="2"  state="yrrrGrrr" next="14"/>
        <phase duration="1"  state="rrrrGrrr" next="15"/>
        <phase duration="15" state="rrrrGGrr" next="16"/>
        <phase duration="2"  state="rrrryyrr" next="17"/>
        <phase duration="1"  state="rrrrrrrr" next="18"/>
        <phase duration="15" state="rrGrrrGr" next="19"/>
        <phase duration="2"  state="rrGrrryr" next="20"/>
        <phase duration="1"  state="rrGrrrrr" next="21"/>
        <phase duration="15" state="rrGGrrrr" next="22"/>
        <phase duration="2"  state="rryyrrrr" next="23"/>
        <phase duration="1"  state="rrrrrrrr" next="0"/>
    </tlLogic>

    <junction id="C2" type="dead_end" x="200.00" y="200.00" incLanes="" intLanes="" shape="200.00,200.00"/>
    <junction id="J17" type="dead_end" x="-590.78" y="469.52" incLanes="-E11_0 -E11_1" intLanes="" shape="-590.78,469.52 -584.38,469.52 -590.78,469.52"/>
    <junction id="J20" type="dead_end" x="-590.82" y="66.87" incLanes="E12_0 E12_1" intLanes="" shape="-590.82,66.87 -597.22,66.87 -590.82,66.87"/>
    <junction id="J21" type="dead_end" x="-335.36" y="274.82" incLanes="E13_0 E13_1" intLanes="" shape="-335.36,274.82 -335.37,268.42 -335.36,274.82"/>
    <junction id="J22" type="dead_end" x="-832.74" y="276.36" incLanes="-E14_0 -E14_1" intLanes="" shape="-832.74,276.36 -832.71,282.76 -832.74,276.36"/>
    <junction id="my_traffic_light" type="traffic_light" x="-590.82" y="275.24" incLanes="E11_0 E11_1 -E13_0 -E13_1 -E12_0 -E12_1 E14_0 E14_1" intLanes=":my_traffic_light_0_0 :my_traffic_light_1_0 :my_traffic_light_2_0 :my_traffic_light_3_0 :my_traffic_light_4_0 :my_traffic_light_5_0 :my_traffic_light_6_0 :my_traffic_light_7_0" shape="-597.22,285.67 -584.42,285.67 -583.97,283.42 -583.41,282.64 -582.63,282.08 -581.63,281.74 -580.40,281.62 -580.42,268.82 -582.64,268.38 -583.42,267.83 -583.98,267.05 -584.31,266.05 -584.42,264.83 -597.22,264.83 -597.67,267.08 -598.23,267.86 -599.02,268.43 -600.04,268.77 -601.28,268.89 -601.22,281.69 -599.00,282.12 -598.22,282.67 -597.66,283.45 -597.33,284.45">
        <request index="0" response="00000000" foes="11100100" cont="0"/>
        <request index="1" response="00010000" foes="10011100" cont="0"/>
        <request index="2" response="00010011" foes="10010011" cont="0"/>
        <request index="3" response="01110010" foes="01110010" cont="0"/>
        <request index="4" response="00000000" foes="01001110" cont="0"/>
        <request index="5" response="00000001" foes="11001001" cont="0"/>
        <request index="6" response="00110001" foes="00111001" cont="0"/>
        <request index="7" response="00100111" foes="00100111" cont="0"/>
    </junction>

    <connection from="-E12" to="-E11" fromLane="0" toLane="0" via=":my_traffic_light_4_0" tl="my_traffic_light" linkIndex="4" dir="s" state="O"/>
    <connection from="-E12" to="-E14" fromLane="1" toLane="1" via=":my_traffic_light_5_0" tl="my_traffic_light" linkIndex="5" dir="l" state="o"/>
    <connection from="-E13" to="-E14" fromLane="0" toLane="0" via=":my_traffic_light_2_0" tl="my_traffic_light" linkIndex="2" dir="s" state="o"/>
    <connection from="-E13" to="E12" fromLane="1" toLane="1" via=":my_traffic_light_3_0" tl="my_traffic_light" linkIndex="3" dir="l" state="o"/>
    <connection from="E11" to="E12" fromLane="0" toLane="0" via=":my_traffic_light_0_0" tl="my_traffic_light" linkIndex="0" dir="s" state="O"/>
    <connection from="E11" to="E13" fromLane="1" toLane="1" via=":my_traffic_light_1_0" tl="my_traffic_light" linkIndex="1" dir="l" state="o"/>
    <connection from="E14" to="E13" fromLane="0" toLane="0" via=":my_traffic_light_6_0" tl="my_traffic_light" linkIndex="6" dir="s" state="o"/>
    <connection from="E14" to="-E11" fromLane="1" toLane="1" via=":my_traffic_light_7_0" tl="my_traffic_light" linkIndex="7" dir="l" state="o"/>

    <connection from=":my_traffic_light_0" to="E12" fromLane="0" toLane="0" dir="s" state="M"/>
    <connection from=":my_traffic_light_1" to="E13" fromLane="0" toLane="1" dir="l" state="M"/>
    <connection from=":my_traffic_light_2" to="-E14" fromLane="0" toLane="0" dir="s" state="M"/>
    <connection from=":my_traffic_light_3" to="E12" fromLane="0" toLane="1" dir="l" state="M"/>
    <connection from=":my_traffic_light_4" to="-E11" fromLane="0" toLane="0" dir="s" state="M"/>
    <connection from=":my_traffic_light_5" to="-E14" fromLane="0" toLane="1" dir="l" state="M"/>
    <connection from=":my_traffic_light_6" to="E13" fromLane="0" toLane="0" dir="s" state="M"/>
    <connection from=":my_traffic_light_7" to="-E11" fromLane="0" toLane="1" dir="l" state="M"/>

</net>
