<?xml version="1.0" encoding="UTF-8"?>

<!-- generated on 2024-09-23 12:35:18 by Eclipse SUMO netedit Version 1.19.0
-->

<routes xmlns:xsi="http://www.w3.org/2001/XMLSchema-instance" xsi:noNamespaceSchemaLocation="http://sumo.dlr.de/xsd/routes_file.xsd">
    <!-- VTypes -->
    <vType id="DEFAULT_CONTAINERTYPE" vClass="passenger"/>
    <vType id="DEFAULT_VEHTYPE" vClass="passenger"/>
    <!-- Vehicles, persons and containers (sorted by depart) -->
    <flow id="f_0" type="DEFAULT_VEHTYPE"       begin="0.00" color="yellow" fromJunction="J17" toJunction="J20" end="3600.00" probability="0.060"/>
    <flow id="f_1" type="DEFAULT_CONTAINERTYPE" begin="0.00" color="green"  fromJunction="J17" toJunction="J20" end="3600.00" probability="0.010"/>
    
    <flow id="f_2" type="DEFAULT_VEHTYPE"       begin="0.00" color="yellow" fromJunction="J20" toJunction="J17" end="3600.00" probability="0.060"/>
    <flow id="f_3" type="DEFAULT_CONTAINERTYPE" begin="0.00" color="green"  fromJunction="J20" toJunction="J17" end="3600.00" probability="0.010"/>
    
    <flow id="f_4" type="DEFAULT_VEHTYPE"       begin="0.00" color="yellow" fromJunction="J17" toJunction="J21" end="3600.00" probability="0.060"/>
    <flow id="f_5" type="DEFAULT_CONTAINERTYPE" begin="0.00" color="green"  fromJunction="J17" toJunction="J21" end="3600.00" probability="0.010"/>
    
    <flow id="f_6" type="DEFAULT_VEHTYPE"       begin="0.00" color="yellow" fromJunction="J20" toJunction="J22" end="3600.00" probability="0.060"/>
    <flow id="f_7" type="DEFAULT_CONTAINERTYPE" begin="0.00" color="green"  fromJunction="J20" toJunction="J22" end="3600.00" probability="0.010"/>
    
    <flow id="f_8" type="DEFAULT_VEHTYPE"       begin="0.00" color="yellow" fromJunction="J21" toJunction="J22" end="3600.00" probability="0.050"/>
    <flow id="f_9" type="DEFAULT_CONTAINERTYPE" begin="0.00" color="green"  fromJunction="J21" toJunction="J22" end="3600.00" probability="0.020"/>
    
    <flow id="f_10" type="DEFAULT_VEHTYPE"       begin="0.00" color="yellow" fromJunction="J22" toJunction="J21" end="3600.00" probability="0.050"/>
    <flow id="f_11" type="DEFAULT_CONTAINERTYPE" begin="0.00" color="green"  fromJunction="J22" toJunction="J21" end="3600.00" probability="0.020"/>
    
    <flow id="f_12" type="DEFAULT_VEHTYPE"       begin="0.00" color="yellow" fromJunction="J22" toJunction="J17" end="3600.00" probability="0.050"/>
    <flow id="f_13" type="DEFAULT_CONTAINERTYPE" begin="0.00" color="green"  fromJunction="J22" toJunction="J17" end="3600.00" probability="0.020"/>
    
    <flow id="f_14" type="DEFAULT_VEHTYPE"       begin="0.00" color="yellow" fromJunction="J21" toJunction="J20" end="3600.00" probability="0.050"/>
    <flow id="f_15" type="DEFAULT_CONTAINERTYPE" begin="0.00" color="green"  fromJunction="J21" toJunction="J20" end="3600.00" probability="0.020"/>
    
</routes>
