<?xml version="1.0" encoding="UTF-8"?>

<!-- generated on 2024-09-17 20:53:07 by Eclipse SUMO netedit Version 1.19.0
-->

<routes xmlns:xsi="http://www.w3.org/2001/XMLSchema-instance" xsi:noNamespaceSchemaLocation="http://sumo.dlr.de/xsd/routes_file.xsd">
    <!-- VTypes -->
    <vType id="DEFAULT_CONTAINERTYPE" length="6.00" maxSpeed="40.00" vClass="bus"/>
    <vType id="DEFAULT_VEHTYPE" length="6.00" maxSpeed="40.00"/>
    <!-- Vehicles, persons and containers (sorted by depart) -->
    <flow id="f_0" begin="0.00" fromJunction="J17" toJunction="J20" end="3600.00" probability="0.1"/>
    <flow id="f_1" begin="0.00" fromJunction="J17" toJunction="J21" end="3600.00" probability="0.02"/>
    <flow id="f_2" begin="0.00" fromJunction="J22" toJunction="J21" end="3600.00" probability="0.08"/>
    <flow id="f_3" begin="0.00" fromJunction="J22" toJunction="J17" end="3600.00" probability="0.05"/>
    <flow id="f_4" begin="0.00" fromJunction="J20" toJunction="J17" end="3600.00" probability="0.05"/>
    <flow id="f_6" begin="0.00" fromJunction="J21" toJunction="J22" end="3600.00" probability="0.09"/>
    <flow id="f_7" begin="0.00" fromJunction="J21" toJunction="J20" end="3600.00" probability="0.06"/>
    <flow id="f_8" type="DEFAULT_CONTAINERTYPE" begin="0.00" color="green" fromJunction="J20" toJunction="J22" end="3600.00" probability="0.06"/>
</routes>
